!-Generator IDFEditor 1.44
!-Option SortedOrder

!-NOTE: All comments with '!-' are ignored by the IDFEditor and are generated automatically.
!-      Use '!' comments if they need to be retained when using the IDFEditor.


!-   ===========  ALL OBJECTS IN CLASS: VERSION ===========

! File generated by DesignBuilder - 3.0.0.064 11/9/2011 - 4:25:56 PM
! Source file: D:\Work\NSF\CSL\EnergyPlus_CSL\CSL_UFAD.dsb
Version,
    8.3;                     !- Version Identifier


!-   ===========  ALL OBJECTS IN CLASS: SIMULATIONCONTROL ===========

SimulationControl,
    Yes,                     !- Do Zone Sizing Calculation
    Yes,                     !- Do System Sizing Calculation
    Yes,                     !- Do Plant Sizing Calculation
    No,                      !- Run Simulation for Sizing Periods
    Yes;                     !- Run Simulation for Weather File Run Periods


!-   ===========  ALL OBJECTS IN CLASS: BUILDING ===========

Building,
    Building,                !- Name
    0,                       !- North Axis {deg}
    Suburbs,                 !- Terrain
    0.4,                     !- Loads Convergence Tolerance Value
    0.4,                     !- Temperature Convergence Tolerance Value {deltaC}
    FullExterior,            !- Solar Distribution
    25,                      !- Maximum Number of Warmup Days
    6;                       !- Minimum Number of Warmup Days


!-   ===========  ALL OBJECTS IN CLASS: SHADOWCALCULATION ===========

ShadowCalculation,
    AverageOverDaysInFrequency,  !- Calculation Method
    20,                      !- Calculation Frequency
    15000;                   !- Maximum Figures in Shadow Overlap Calculations


!-   ===========  ALL OBJECTS IN CLASS: SURFACECONVECTIONALGORITHM:INSIDE ===========

SurfaceConvectionAlgorithm:Inside,
    AdaptiveConvectionAlgorithm;  !- Algorithm


!-   ===========  ALL OBJECTS IN CLASS: SURFACECONVECTIONALGORITHM:OUTSIDE ===========

SurfaceConvectionAlgorithm:Outside,
    DOE-2;                   !- Algorithm


!-   ===========  ALL OBJECTS IN CLASS: HEATBALANCEALGORITHM ===========

HeatBalanceAlgorithm,
    ConductionTransferFunction,  !- Algorithm
    2000;                    !- Surface Temperature Upper Limit {C}


!-   ===========  ALL OBJECTS IN CLASS: ZONEAIRCONTAMINANTBALANCE ===========

ZoneAirContaminantBalance,
    Yes,                     !- Carbon Dioxide Concentration
    OutdoorCO2Schedule;      !- Outdoor Carbon Dioxide Schedule Name


!-   ===========  ALL OBJECTS IN CLASS: ZONECAPACITANCEMULTIPLIER:RESEARCHSPECIAL ===========

ZoneCapacitanceMultiplier:ResearchSpecial,
    1.0,                     !- Temperature Capacity Multiplier
    1.0,                     !- Humidity Capacity Multiplier
    1.0,                     !- Carbon Dioxide Capacity Multiplier
    1.0;                     !- Generic Contaminant Capacity Multiplier


!-   ===========  ALL OBJECTS IN CLASS: TIMESTEP ===========

Timestep,
    6;                       !- Number of Timesteps per Hour


!-   ===========  ALL OBJECTS IN CLASS: CONVERGENCELIMITS ===========

ConvergenceLimits,
    1,                       !- Minimum System Timestep {minutes}
    20;                      !- Maximum HVAC Iterations


!-   ===========  ALL OBJECTS IN CLASS: SITE:LOCATION ===========

! Hourly weather file: C:\ProgramData\DesignBuilder\Weather Data\USA_PA_PITTSBURGH INTL AP_TMY3.epw
Site:Location,
    Phipps_CSL_Building,     !- Name
    40.5,                    !- Latitude {deg}
    -80.22,                  !- Longitude {deg}
    -5,                      !- Time Zone {hr}
    373;                     !- Elevation {m}


!-   ===========  ALL OBJECTS IN CLASS: SIZINGPERIOD:DESIGNDAY ===========

SizingPeriod:DesignDay,
    Summer Design Day in Phipps_CSL_Building,  !- Name
    7,                       !- Month
    15,                      !- Day of Month
    SummerDesignDay,         !- Day Type
    31.7,                    !- Maximum Dry-Bulb Temperature {C}
    10.5,                    !- Daily Dry-Bulb Temperature Range {deltaC}
    DefaultMultipliers,      !- Dry-Bulb Temperature Range Modifier Type
    ,                        !- Dry-Bulb Temperature Range Modifier Day Schedule Name
    Wetbulb,                 !- Humidity Condition Type
    22.5,                    !- Wetbulb or DewPoint at Maximum Dry-Bulb {C}
    ,                        !- Humidity Condition Day Schedule Name
    ,                        !- Humidity Ratio at Maximum Dry-Bulb {kgWater/kgDryAir}
    ,                        !- Enthalpy at Maximum Dry-Bulb {J/kg}
    ,                        !- Daily Wet-Bulb Temperature Range {deltaC}
    96923.6,                 !- Barometric Pressure {Pa}
    0,                       !- Wind Speed {m/s}
    0,                       !- Wind Direction {deg}
    No,                      !- Rain Indicator
    No,                      !- Snow Indicator
    Yes,                     !- Daylight Saving Time Indicator
    ASHRAEClearSky,          !- Solar Model Indicator
    ,                        !- Beam Solar Day Schedule Name
    ,                        !- Diffuse Solar Day Schedule Name
    0,                       !- ASHRAE Clear Sky Optical Depth for Beam Irradiance (taub) {dimensionless}
    0,                       !- ASHRAE Clear Sky Optical Depth for Diffuse Irradiance (taud) {dimensionless}
    0.98;                    !- Sky Clearness

SizingPeriod:DesignDay,
    Winter Design Day in Phipps_CSL_Building,  !- Name
    1,                       !- Month
    15,                      !- Day of Month
    WinterDesignDay,         !- Day Type
    -16.8,                   !- Maximum Dry-Bulb Temperature {C}
    0,                       !- Daily Dry-Bulb Temperature Range {deltaC}
    DefaultMultipliers,      !- Dry-Bulb Temperature Range Modifier Type
    ,                        !- Dry-Bulb Temperature Range Modifier Day Schedule Name
    Wetbulb,                 !- Humidity Condition Type
    -16.8,                   !- Wetbulb or DewPoint at Maximum Dry-Bulb {C}
    ,                        !- Humidity Condition Day Schedule Name
    ,                        !- Humidity Ratio at Maximum Dry-Bulb {kgWater/kgDryAir}
    ,                        !- Enthalpy at Maximum Dry-Bulb {J/kg}
    ,                        !- Daily Wet-Bulb Temperature Range {deltaC}
    96923.6,                 !- Barometric Pressure {Pa}
    12.7,                    !- Wind Speed {m/s}
    0,                       !- Wind Direction {deg}
    No,                      !- Rain Indicator
    No,                      !- Snow Indicator
    No,                      !- Daylight Saving Time Indicator
    ASHRAEClearSky,          !- Solar Model Indicator
    ,                        !- Beam Solar Day Schedule Name
    ,                        !- Diffuse Solar Day Schedule Name
    0,                       !- ASHRAE Clear Sky Optical Depth for Beam Irradiance (taub) {dimensionless}
    0,                       !- ASHRAE Clear Sky Optical Depth for Diffuse Irradiance (taud) {dimensionless}
    0;                       !- Sky Clearness


!-   ===========  ALL OBJECTS IN CLASS: RUNPERIOD ===========

RunPeriod,
    Phipps_CSL_Building_Winter,  !- Name 
    6,                       !- Begin Month of 2016
    1,                       !- Begin Day of Month
    9,                       !- End Month
    30,                       !- End Day of Month
    Wednesday,                  !- Day of Week for Start Day
    No,                      !- Use Weather File Holidays and Special Days
    No,                      !- Use Weather File Daylight Saving Period
    Yes,                     !- Apply Weekend Holiday Rule
    Yes,                     !- Use Weather File Rain Indicators
    Yes,                     !- Use Weather File Snow Indicators
    1;                    !- Number of Times Runperiod to be Repeated


!-   ===========  ALL OBJECTS IN CLASS: RUNPERIODCONTROL:DAYLIGHTSAVINGTIME ===========

!RunPeriodControl:DaylightSavingTime,
!    2nd Sunday in March,     !- Start Date of 2016
!    1st Sunday in November;  !- End Date


!-   ===========  ALL OBJECTS IN CLASS: SITE:GROUNDTEMPERATURE:BUILDINGSURFACE ===========

Site:GroundTemperature:BuildingSurface,
    14,                      !- January Ground Temperature {C}
    14,                      !- February Ground Temperature {C}
    14,                      !- March Ground Temperature {C}
    14,                      !- April Ground Temperature {C}
    14,                      !- May Ground Temperature {C}
    14,                      !- June Ground Temperature {C}
    14,                      !- July Ground Temperature {C}
    14,                      !- August Ground Temperature {C}
    14,                      !- September Ground Temperature {C}
    14,                      !- October Ground Temperature {C}
    14,                      !- November Ground Temperature {C}
    14;                      !- December Ground Temperature {C}


!-   ===========  ALL OBJECTS IN CLASS: SITE:GROUNDTEMPERATURE:DEEP ===========

Site:GroundTemperature:Deep,
    14.89,                   !- January Deep Ground Temperature {C}
    14.89,                   !- February Deep Ground Temperature {C}
    14.89,                   !- March Deep Ground Temperature {C}
    14.89,                   !- April Deep Ground Temperature {C}
    14.89,                   !- May Deep Ground Temperature {C}
    14.89,                   !- June Deep Ground Temperature {C}
    14.89,                   !- July Deep Ground Temperature {C}
    14.89,                   !- August Deep Ground Temperature {C}
    14.89,                   !- September Deep Ground Temperature {C}
    14.89,                   !- October Deep Ground Temperature {C}
    14.89,                   !- November Deep Ground Temperature {C}
    14.89;                   !- December Deep Ground Temperature {C}


!-   ===========  ALL OBJECTS IN CLASS: SITE:GROUNDREFLECTANCE ===========

Site:GroundReflectance,
    0.2,                     !- January Ground Reflectance {dimensionless}
    0.2,                     !- February Ground Reflectance {dimensionless}
    0.2,                     !- March Ground Reflectance {dimensionless}
    0.2,                     !- April Ground Reflectance {dimensionless}
    0.2,                     !- May Ground Reflectance {dimensionless}
    0.2,                     !- June Ground Reflectance {dimensionless}
    0.2,                     !- July Ground Reflectance {dimensionless}
    0.2,                     !- August Ground Reflectance {dimensionless}
    0.2,                     !- September Ground Reflectance {dimensionless}
    0.2,                     !- October Ground Reflectance {dimensionless}
    0.2,                     !- November Ground Reflectance {dimensionless}
    0.2;                     !- December Ground Reflectance {dimensionless}


!-   ===========  ALL OBJECTS IN CLASS: SITE:GROUNDREFLECTANCE:SNOWMODIFIER ===========

Site:GroundReflectance:SnowModifier,
    1.0,                     !- Ground Reflected Solar Modifier
    1.0;                     !- Daylighting Ground Reflected Solar Modifier


!-   ===========  ALL OBJECTS IN CLASS: SCHEDULETYPELIMITS ===========

! Not limited
ScheduleTypeLimits,
    Any Number;              !- Name

ScheduleTypeLimits,
    Fraction,                !- Name
    0.0,                     !- Lower Limit Value
    1.0,                     !- Upper Limit Value
    CONTINUOUS;              !- Numeric Type

ScheduleTypeLimits,
    Temperature,             !- Name
    -60,                     !- Lower Limit Value
    200,                     !- Upper Limit Value
    CONTINUOUS;              !- Numeric Type

ScheduleTypeLimits,
    Control Type,            !- Name
    0,                       !- Lower Limit Value
    4,                       !- Upper Limit Value
    DISCRETE;                !- Numeric Type

ScheduleTypeLimits,
    On/Off,                  !- Name
    0,                       !- Lower Limit Value
    1,                       !- Upper Limit Value
    DISCRETE;                !- Numeric Type


!-   ===========  ALL OBJECTS IN CLASS: SCHEDULE:DAY:HOURLY ===========

!Schedule:Compact, AirVelocitySchedule,
!      Any Number,                                 ! Type
!      Through: 12/31,                             ! Type
!      For: AllDays,                               ! All days in year
!      Until: 24:00,                               ! All hours in day
!       0.137;
! off heating day
Schedule:Day:Hourly,
    0,                       !- Name
    Any Number,              !- Schedule Type Limits Name
    0,                       !- Hour 1
    0,                       !- Hour 2
    0,                       !- Hour 3
    0,                       !- Hour 4
    0,                       !- Hour 5
    0,                       !- Hour 6
    0,                       !- Hour 7
    0,                       !- Hour 8
    0,                       !- Hour 9
    0,                       !- Hour 10
    0,                       !- Hour 11
    0,                       !- Hour 12
    0,                       !- Hour 13
    0,                       !- Hour 14
    0,                       !- Hour 15
    0,                       !- Hour 16
    0,                       !- Hour 17
    0,                       !- Hour 18
    0,                       !- Hour 19
    0,                       !- Hour 20
    0,                       !- Hour 21
    0,                       !- Hour 22
    0,                       !- Hour 23
    0;                       !- Hour 24

! off cooling day
Schedule:Day:Hourly,
    50,                      !- Name
    Any Number,              !- Schedule Type Limits Name
    50,                      !- Hour 1
    50,                      !- Hour 2
    50,                      !- Hour 3
    50,                      !- Hour 4
    50,                      !- Hour 5
    50,                      !- Hour 6
    50,                      !- Hour 7
    50,                      !- Hour 8
    50,                      !- Hour 9
    50,                      !- Hour 10
    50,                      !- Hour 11
    50,                      !- Hour 12
    50,                      !- Hour 13
    50,                      !- Hour 14
    50,                      !- Hour 15
    50,                      !- Hour 16
    50,                      !- Hour 17
    50,                      !- Hour 18
    50,                      !- Hour 19
    50,                      !- Hour 20
    50,                      !- Hour 21
    50,                      !- Hour 22
    50,                      !- Hour 23
    50;                      !- Hour 24

! -------------------- Control type schedules (for heating & cooling) ----------------------

Schedule:Day:Hourly,
    Winter Control Type Day Sch,  !- Name
    Control Type,            !- Schedule Type Limits Name
    4,                       !- Hour 1
    4,                       !- Hour 2
    4,                       !- Hour 3
    4,                       !- Hour 4
    4,                       !- Hour 5
    4,                       !- Hour 6
    4,                       !- Hour 7
    4,                       !- Hour 8
    4,                       !- Hour 9
    4,                       !- Hour 10
    4,                       !- Hour 11
    4,                       !- Hour 12
    4,                       !- Hour 13
    4,                       !- Hour 14
    4,                       !- Hour 15
    4,                       !- Hour 16
    4,                       !- Hour 17
    4,                       !- Hour 18
    4,                       !- Hour 19
    4,                       !- Hour 20
    4,                       !- Hour 21
    4,                       !- Hour 22
    4,                       !- Hour 23
    4;                       !- Hour 24



!-   ===========  ALL OBJECTS IN CLASS: SCHEDULE:WEEK:DAILY ===========




Schedule:Week:Daily,
    Winter Control Type Week Sch,  !- Name
    Winter Control Type Day Sch,  !- Sunday Schedule:Day Name
    Winter Control Type Day Sch,  !- Monday Schedule:Day Name
    Winter Control Type Day Sch,  !- Tuesday Schedule:Day Name
    Winter Control Type Day Sch,  !- Wednesday Schedule:Day Name
    Winter Control Type Day Sch,  !- Thursday Schedule:Day Name
    Winter Control Type Day Sch,  !- Friday Schedule:Day Name
    Winter Control Type Day Sch,  !- Saturday Schedule:Day Name
    Winter Control Type Day Sch,  !- Holiday Schedule:Day Name
    Winter Control Type Day Sch,  !- SummerDesignDay Schedule:Day Name
    Winter Control Type Day Sch,  !- WinterDesignDay Schedule:Day Name
    Winter Control Type Day Sch,  !- CustomDay1 Schedule:Day Name
    Winter Control Type Day Sch;  !- CustomDay2 Schedule:Day Name



!-   ===========  ALL OBJECTS IN CLASS: SCHEDULE:COMPACT ===========

! Schedule: Chilled water flow set point temperature: Always 10.0 C
Schedule:Compact,
    40,                      !- Name
    Temperature,             !- Schedule Type Limits Name
    Through: 12/31,          !- Field 1
    For: AllDays,            !- Field 2
    Until: 24:00,            !- Field 3
    7.22;                    !- Field 4

! Schedule: Hot Water flow set point temperature: Always 80.0 C
Schedule:Compact,
    41,                      !- Name
    Temperature,             !- Schedule Type Limits Name
    Through: 12/31,          !- Field 1
    For: AllDays,            !- Field 2
    Until: 24:00,            !- Field 3
    82;                      !- Field 4

! Schedule: Condenser flow set point temperature: Always 29.0 C
Schedule:Compact,
    42,                      !- Name
    Temperature,             !- Schedule Type Limits Name
    Through: 12/31,          !- Field 1
    For: AllDays,            !- Field 2
    Until: 24:00,            !- Field 3
    29;                      !- Field 4

! Schedule: Air loop cooling set point temperature: Always 14.0 C
Schedule:Compact,
    44,                      !- Name
    Any Number,              !- Schedule Type Limits Name
    Through: 12/31,          !- Field 1
    For: AllDays,            !- Field 2
    Until: 24:00,            !- Field 3
    14;                      !- Field 4

! Schedule: Heating set point schedule
Schedule:Compact,
    46,                      !- Name
    Any Number,              !- Schedule Type Limits Name
    Through: 12/31,          !- Field 1
    For: AllDays,            !- Field 2
    Until: 24:00,            !- Field 3
    20;                      !- Field 4

! Schedule: Cooling set point schedule
Schedule:Compact,
    47,                      !- Name
    Any Number,              !- Schedule Type Limits Name
    Through: 12/31,          !- Field 1
    For: AllDays,            !- Field 2
    Until: 24:00,            !- Field 3
    24;                      !- Field 4

! Schedule: Control type schedule: Always 4
Schedule:Compact,
    48,                      !- Name
    Any Number,              !- Schedule Type Limits Name
    Through: 12/31,          !- Field 1
    For: AllDays,            !- Field 2
    Until: 24:00,            !- Field 3
    4;                       !- Field 4

! Schedule: Preheat coil setpoint temperature: Always 5.00
Schedule:Compact,
    58,                      !- Name
    Any Number,              !- Schedule Type Limits Name
    Through: 12/31,          !- Field 1
    For: AllDays,            !- Field 2
    Until: 24:00,            !- Field 3
    5;                       !- Field 4

! Schedule: Precool coil setpoint temperature: Always 22.00
Schedule:Compact,
    59,                      !- Name
    Any Number,              !- Schedule Type Limits Name
    Through: 12/31,          !- Field 1
    For: AllDays,            !- Field 2
    Until: 24:00,            !- Field 3
    22;                      !- Field 4

! Schedule: Relative humidity setpoint schedule: Always 50.00
Schedule:Compact,
    63,                      !- Name
    Any Number,              !- Schedule Type Limits Name
    Through: 12/31,          !- Field 1
    For: AllDays,            !- Field 2
    Until: 24:00,            !- Field 3
    50;                      !- Field 4

! Schedule: Min supply air flow fraction schedule: Always 0.3
Schedule:Compact,
    66,                      !- Name
    Any Number,              !- Schedule Type Limits Name
    Through: 12/31,          !- Field 1
    For: AllDays,            !- Field 2
    Until: 24:00,            !- Field 3
    0.3;                     !- Field 4

! Name
! Schedule Type Limits Name
! Field 1
! Field 2
! Field 3
! Field 4
Schedule:Compact,
    Transmittance schedule for Phipps_CSL Building - Component block 1,  !- Name
    Any Number,              !- Schedule Type Limits Name
    Through: 12/31,          !- Field 1
    For: AllDays,            !- Field 2
    Until: 24:00,            !- Field 3
    0;                       !- Field 4

! Name
! Schedule Type Limits Name
! Field 1
! Field 2
! Field 3
! Field 4
Schedule:Compact,
    Transmittance schedule for Phipps_CSL Building - Component block 2,  !- Name
    Any Number,              !- Schedule Type Limits Name
    Through: 12/31,          !- Field 1
    For: AllDays,            !- Field 2
    Until: 24:00,            !- Field 3
    0;                       !- Field 4

! Name
! Schedule Type Limits Name
! Field 1
! Field 2
! Field 3
! Field 4
Schedule:Compact,
    Transmittance schedule for Phipps_CSL Building - Component block 4,  !- Name
    Any Number,              !- Schedule Type Limits Name
    Through: 12/31,          !- Field 1
    For: AllDays,            !- Field 2
    Until: 24:00,            !- Field 3
    0;                       !- Field 4

! Name
! Schedule Type Limits Name
! Field 1
! Field 2
! Field 3
! Field 4
Schedule:Compact,
    Transmittance schedule for Phipps_CSL Building - Component block 6,  !- Name
    Any Number,              !- Schedule Type Limits Name
    Through: 12/31,          !- Field 1
    For: AllDays,            !- Field 2
    Until: 24:00,            !- Field 3
    0;                       !- Field 4

! Name
! Schedule Type Limits Name
! Field 1
! Field 2
! Field 3
! Field 4
Schedule:Compact,
    Transmittance schedule for Phipps_CSL Building - Component block 7,  !- Name
    Any Number,              !- Schedule Type Limits Name
    Through: 12/31,          !- Field 1
    For: AllDays,            !- Field 2
    Until: 24:00,            !- Field 3
    0;                       !- Field 4

! Name
! Schedule Type Limits Name
! Field 1
! Field 2
! Field 3
! Field 4
Schedule:Compact,
    Transmittance schedule for Phipps_CSL Building - Component block 8,  !- Name
    Any Number,              !- Schedule Type Limits Name
    Through: 12/31,          !- Field 1
    For: AllDays,            !- Field 2
    Until: 24:00,            !- Field 3
    0;                       !- Field 4

! Name
! Schedule Type Limits Name
! Field 1
! Field 2
! Field 3
! Field 4
Schedule:Compact,
    Transmittance schedule for Phipps_CSL Building - Component block 9,  !- Name
    Any Number,              !- Schedule Type Limits Name
    Through: 12/31,          !- Field 1
    For: AllDays,            !- Field 2
    Until: 24:00,            !- Field 3
    0;                       !- Field 4

! Name
! Schedule Type Limits Name
! Field 1
! Field 2
! Field 3
! Field 4
Schedule:Compact,
    Transmittance schedule for Phipps_CSL Building - Component block 14,  !- Name
    Any Number,              !- Schedule Type Limits Name
    Through: 12/31,          !- Field 1
    For: AllDays,            !- Field 2
    Until: 24:00,            !- Field 3
    0;                       !- Field 4

! Name
! Schedule Type Limits Name
! Field 1
! Field 2
! Field 3
! Field 4
Schedule:Compact,
    Transmittance schedule for Phipps_CSL Building - Component block 15,  !- Name
    Any Number,              !- Schedule Type Limits Name
    Through: 12/31,          !- Field 1
    For: AllDays,            !- Field 2
    Until: 24:00,            !- Field 3
    0;                       !- Field 4

! Name
! Schedule Type Limits Name
! Field 1
! Field 2
! Field 3
! Field 4
Schedule:Compact,
    Transmittance schedule for Phipps_CSL Building - Component block 16,  !- Name
    Any Number,              !- Schedule Type Limits Name
    Through: 12/31,          !- Field 1
    For: AllDays,            !- Field 2
    Until: 24:00,            !- Field 3
    0;                       !- Field 4

! Name
! Schedule Type Limits Name
! Field 1
! Field 2
! Field 3
! Field 4
Schedule:Compact,
    Transmittance schedule for Phipps_CSL Building - Component block 17,  !- Name
    Any Number,              !- Schedule Type Limits Name
    Through: 12/31,          !- Field 1
    For: AllDays,            !- Field 2
    Until: 24:00,            !- Field 3
    0;                       !- Field 4

! Name
! Schedule Type Limits Name
! Field 1
! Field 2
! Field 3
! Field 4
Schedule:Compact,
    Transmittance schedule for Phipps_CSL Building - Component block 18,  !- Name
    Any Number,              !- Schedule Type Limits Name
    Through: 12/31,          !- Field 1
    For: AllDays,            !- Field 2
    Until: 24:00,            !- Field 3
    0;                       !- Field 4

! Name
! Schedule Type Limits Name
! Field 1
! Field 2
! Field 3
! Field 4
Schedule:Compact,
    Transmittance schedule for Phipps_CSL Building - Component block 21,  !- Name
    Any Number,              !- Schedule Type Limits Name
    Through: 12/31,          !- Field 1
    For: AllDays,            !- Field 2
    Until: 24:00,            !- Field 3
    0;                       !- Field 4

! Name
! Schedule Type Limits Name
! Field 1
! Field 2
! Field 3
! Field 4
Schedule:Compact,
    Transmittance schedule for Phipps_CSL Building - Component block 23,  !- Name
    Any Number,              !- Schedule Type Limits Name
    Through: 12/31,          !- Field 1
    For: AllDays,            !- Field 2
    Until: 24:00,            !- Field 3
    0;                       !- Field 4

! Name
! Schedule Type Limits Name
! Field 1
! Field 2
! Field 3
! Field 4
Schedule:Compact,
    Transmittance schedule for Phipps_CSL Building - Component block 24,  !- Name
    Any Number,              !- Schedule Type Limits Name
    Through: 12/31,          !- Field 1
    For: AllDays,            !- Field 2
    Until: 24:00,            !- Field 3
    0;                       !- Field 4

! Name
! Schedule Type Limits Name
! Field 1
! Field 2
! Field 3
! Field 4
Schedule:Compact,
    Transmittance schedule for Phipps_CSL Building - Component block 25,  !- Name
    Any Number,              !- Schedule Type Limits Name
    Through: 12/31,          !- Field 1
    For: AllDays,            !- Field 2
    Until: 24:00,            !- Field 3
    0;                       !- Field 4

! Name
! Schedule Type Limits Name
! Field 1
! Field 2
! Field 3
! Field 4
Schedule:Compact,
    Transmittance schedule for Phipps_CSL Building - Component block 26,  !- Name
    Any Number,              !- Schedule Type Limits Name
    Through: 12/31,          !- Field 1
    For: AllDays,            !- Field 2
    Until: 24:00,            !- Field 3
    0;                       !- Field 4

! Name
! Schedule Type Limits Name
! Field 1
! Field 2
! Field 3
! Field 4
Schedule:Compact,
    Transmittance schedule for Phipps_CSL Building - Component block 27,  !- Name
    Any Number,              !- Schedule Type Limits Name
    Through: 12/31,          !- Field 1
    For: AllDays,            !- Field 2
    Until: 24:00,            !- Field 3
    0;                       !- Field 4

! Name
! Schedule Type Limits Name
! Field 1
! Field 2
! Field 3
! Field 4
Schedule:Compact,
    Transmittance schedule for Phipps_CSL Building - Component block 22,  !- Name
    Any Number,              !- Schedule Type Limits Name
    Through: 12/31,          !- Field 1
    For: AllDays,            !- Field 2
    Until: 24:00,            !- Field 3
    0;                       !- Field 4

! Name
! Schedule Type Limits Name
! Field 1
! Field 2
! Field 3
! Field 4
Schedule:Compact,
    Transmittance schedule for Phipps_CSL Building - Component block 36,  !- Name
    Any Number,              !- Schedule Type Limits Name
    Through: 12/31,          !- Field 1
    For: AllDays,            !- Field 2
    Until: 24:00,            !- Field 3
    0;                       !- Field 4

! Name
! Schedule Type Limits Name
! Field 1
! Field 2
! Field 3
! Field 4
Schedule:Compact,
    Transmittance schedule for Phipps_CSL Building - B&G_south_building,  !- Name
    Any Number,              !- Schedule Type Limits Name
    Through: 12/31,          !- Field 1
    For: AllDays,            !- Field 2
    Until: 24:00,            !- Field 3
    0;                       !- Field 4

! Name
! Schedule Type Limits Name
! Field 1
! Field 2
! Field 3
! Field 4
Schedule:Compact,
    Transmittance schedule for Phipps_CSL Building - B&G_north_building,  !- Name
    Any Number,              !- Schedule Type Limits Name
    Through: 12/31,          !- Field 1
    For: AllDays,            !- Field 2
    Until: 24:00,            !- Field 3
    0;                       !- Field 4

! Name
! Schedule Type Limits Name
! Field 1
! Field 2