!-Generator IDFEditor 1.44
!-Option SortedOrder

!-NOTE: All comments with '!-' are ignored by the IDFEditor and are generated automatically.
!-      Use '!' comments if they need to be retained when using the IDFEditor.
!1+5+3+6+8

!-   ===========  ALL OBJECTS IN CLASS: VERSION ===========

! *** EVALUATION SOFTWARE GENERATES COMPRESSED IDF - TO OBTAIN READABLE IDF PLEASE PURCHASE A LICENCE ***
! File generated by DesignBuilder - 4.7.0.027 25/07/2017 - 15:14:38
! Source file: C:\Users\Zhiang Zhang\Desktop\iw_eplus\iw_v4.7.dsb
Version,
    8.3.0.001;               !- Version Identifier


!-   ===========  ALL OBJECTS IN CLASS: SIMULATIONCONTROL ===========

SimulationControl,
    No,                     !- Do Zone Sizing Calculation
    No,                     !- Do System Sizing Calculation
    No,                     !- Do Plant Sizing Calculation
    No,                      !- Run Simulation for Sizing Periods
    Yes;                     !- Run Simulation for Weather File Run Periods


!-   ===========  ALL OBJECTS IN CLASS: BUILDING ===========

Building,
    Building,                !- Name
    15,                      !- North Axis {deg}
    Suburbs,                 !- Terrain
    0.04,                    !- Loads Convergence Tolerance Value
    0.4,                     !- Temperature Convergence Tolerance Value {deltaC}
    FullExterior,            !- Solar Distribution
    25,                      !- Maximum Number of Warmup Days
    6;                       !- Minimum Number of Warmup Days


!-   ===========  ALL OBJECTS IN CLASS: SHADOWCALCULATION ===========

ShadowCalculation,
    AverageOverDaysInFrequency,  !- Calculation Method
    20,                      !- Calculation Frequency
    15000,                   !- Maximum Figures in Shadow Overlap Calculations
    SutherlandHodgman,       !- Polygon Clipping Algorithm
    SimpleSkyDiffuseModeling;!- Sky Diffuse Modeling Algorithm


!-   ===========  ALL OBJECTS IN CLASS: SURFACECONVECTIONALGORITHM:INSIDE ===========

SurfaceConvectionAlgorithm:Inside,
    TARP;                    !- Algorithm


!-   ===========  ALL OBJECTS IN CLASS: SURFACECONVECTIONALGORITHM:OUTSIDE ===========

SurfaceConvectionAlgorithm:Outside,
    DOE-2;                   !- Algorithm


!-   ===========  ALL OBJECTS IN CLASS: HEATBALANCEALGORITHM ===========

HeatBalanceAlgorithm,
    ConductionTransferFunction,  !- Algorithm
    2000;                    !- Surface Temperature Upper Limit {C}


!-   ===========  ALL OBJECTS IN CLASS: ZONEAIRCONTAMINANTBALANCE ===========

ZoneAirContaminantBalance,
    Yes,                     !- Carbon Dioxide Concentration
    outdoor_always400ppm,                        !- Outdoor Carbon Dioxide Schedule Name
    No;                      !- Generic Contaminant Concentration


!-   ===========  ALL OBJECTS IN CLASS: ZONECAPACITANCEMULTIPLIER:RESEARCHSPECIAL ===========

ZoneCapacitanceMultiplier:ResearchSpecial,
    1,                       !- Temperature Capacity Multiplier
    1.0,                     !- Humidity Capacity Multiplier
    1.0,                     !- Carbon Dioxide Capacity Multiplier
    1.0;                     !- Generic Contaminant Capacity Multiplier


!-   ===========  ALL OBJECTS IN CLASS: TIMESTEP ===========

Timestep,
    12;                      !- Number of Timesteps per Hour


!-   ===========  ALL OBJECTS IN CLASS: CONVERGENCELIMITS ===========

ConvergenceLimits,
    1,                       !- Minimum System Timestep {minutes}
    25;                      !- Maximum HVAC Iterations


!-   ===========  ALL OBJECTS IN CLASS: PROGRAMCONTROL ===========

ProgramControl,
    0;                       !- Number of Threads Allowed


!-   ===========  ALL OBJECTS IN CLASS: SITE:LOCATION ===========

Site:Location,
    Pittsburgh PA USA,       !- Name
    40.36,                   !- Latitude {deg}
    -79.92,                  !- Longitude {deg}
    -5,                      !- Time Zone {hr}
    388;                     !- Elevation {m}


!-   ===========  ALL OBJECTS IN CLASS: SIZINGPERIOD:DESIGNDAY ===========

SizingPeriod:DesignDay,
    Summer Design Day in Pittsburgh PA 99.6,  !- Name
    7,                       !- Month
    15,                      !- Day of Month
    SummerDesignDay,         !- Day Type
    32.2,                    !- Maximum Dry-Bulb Temperature {C}
    9.8,                     !- Daily Dry-Bulb Temperature Range {deltaC}
    ,                        !- Dry-Bulb Temperature Range Modifier Type
    ,                        !- Dry-Bulb Temperature Range Modifier Day Schedule Name
    WetBulb,                 !- Humidity Condition Type
    22.4,                    !- Wetbulb or DewPoint at Maximum Dry-Bulb {C}
    ,                        !- Humidity Condition Day Schedule Name
    ,                        !- Humidity Ratio at Maximum Dry-Bulb {kgWater/kgDryAir}
    ,                        !- Enthalpy at Maximum Dry-Bulb {J/kg}
    ,                        !- Daily Wet-Bulb Temperature Range {deltaC}
    96749.9,                 !- Barometric Pressure {Pa}
    0,                       !- Wind Speed {m/s}
    0,                       !- Wind Direction {deg}
    No,                      !- Rain Indicator
    No,                      !- Snow Indicator
    Yes,                     !- Daylight Saving Time Indicator
    ,                        !- Solar Model Indicator
    ,                        !- Beam Solar Day Schedule Name
    ,                        !- Diffuse Solar Day Schedule Name
    ,                        !- ASHRAE Clear Sky Optical Depth for Beam Irradiance (taub) {dimensionless}
    ,                        !- ASHRAE Clear Sky Optical Depth for Diffuse Irradiance (taud) {dimensionless}
    0.98;                    !- Sky Clearness

SizingPeriod:DesignDay,
    Winter Design Day in Pittsburgh PA 99.6,  !- Name
    1,                       !- Month
    15,                      !- Day of Month
    WinterDesignDay,         !- Day Type
    -14.7,                   !- Maximum Dry-Bulb Temperature {C}
    0,                       !- Daily Dry-Bulb Temperature Range {deltaC}
    ,                        !- Dry-Bulb Temperature Range Modifier Type
    ,                        !- Dry-Bulb Temperature Range Modifier Day Schedule Name
    WetBulb,                 !- Humidity Condition Type
    -14.7,                   !- Wetbulb or DewPoint at Maximum Dry-Bulb {C}
    ,                        !- Humidity Condition Day Schedule Name
    ,                        !- Humidity Ratio at Maximum Dry-Bulb {kgWater/kgDryAir}
    ,                        !- Enthalpy at Maximum Dry-Bulb {J/kg}
    ,                        !- Daily Wet-Bulb Temperature Range {deltaC}
    96749.9,                 !- Barometric Pressure {Pa}
    11.2,                    !- Wind Speed {m/s}
    0,                       !- Wind Direction {deg}
    No,                      !- Rain Indicator
    No,                      !- Snow Indicator
    No,                      !- Daylight Saving Time Indicator
    ,                        !- Solar Model Indicator
    ,                        !- Beam Solar Day Schedule Name
    ,                        !- Diffuse Solar Day Schedule Name
    ,                        !- ASHRAE Clear Sky Optical Depth for Beam Irradiance (taub) {dimensionless}
    ,                        !- ASHRAE Clear Sky Optical Depth for Diffuse Irradiance (taud) {dimensionless}
    0;                       !- Sky Clearness


!-   ===========  ALL OBJECTS IN CLASS: RUNPERIOD ===========

RunPeriod,
    wholeyear,               !- Name
    1,                       !- Begin Month
    1,                       !- Begin Day of Month
    3,                      !- End Month
    31,                      !- End Day of Month
    Sunday,          !- Day of Week for Start Day
    No,                      !- Use Weather File Holidays and Special Days
    No,                      !- Use Weather File Daylight Saving Period
    Yes,                     !- Apply Weekend Holiday Rule
    Yes,                     !- Use Weather File Rain Indicators
    Yes,                     !- Use Weather File Snow Indicators
    1;                       !- Number of Times Runperiod to be Repeated

!-   ===========  ALL OBJECTS IN CLASS: RUNPERIODCONTROL:DAYLIGHTSAVINGTIME ===========

RunPeriodControl:DaylightSavingTime,
    2nd Sunday in March,     !- Start Date
    1st Sunday in November;  !- End Date


!-   ===========  ALL OBJECTS IN CLASS: SITE:GROUNDTEMPERATURE:BUILDINGSURFACE ===========

Site:GroundTemperature:BuildingSurface,
    18,                      !- January Ground Temperature {C}
    18,                      !- February Ground Temperature {C}
    18,                      !- March Ground Temperature {C}
    18,                      !- April Ground Temperature {C}
    18,                      !- May Ground Temperature {C}
    18,                      !- June Ground Temperature {C}
    18,                      !- July Ground Temperature {C}
    18,                      !- August Ground Temperature {C}
    18,                      !- September Ground Temperature {C}
    18,                      !- October Ground Temperature {C}
    18,                      !- November Ground Temperature {C}
    18;                      !- December Ground Temperature {C}


!-   ===========  ALL OBJECTS IN CLASS: SITE:GROUNDTEMPERATURE:FCFACTORMETHOD ===========

Site:GroundTemperature:FCfactorMethod,
    2.10,                    !- January Ground Temperature {C}
    1.21,                    !- February Ground Temperature {C}
    2.79,                    !- March Ground Temperature {C}
    5.27,                    !- April Ground Temperature {C}
    11.76,                   !- May Ground Temperature {C}
    16.77,                   !- June Ground Temperature {C}
    20.14,                   !- July Ground Temperature {C}
    21.17,                   !- August Ground Temperature {C}
    19.42,                   !- September Ground Temperature {C}
    15.53,                   !- October Ground Temperature {C}
    10.34,                   !- November Ground Temperature {C}
    5.52;                    !- December Ground Temperature {C}


!-   ===========  ALL OBJECTS IN CLASS: SITE:GROUNDTEMPERATURE:SHALLOW ===========

Site:GroundTemperature:Shallow,
    14,                      !- January Surface Ground Temperature {C}
    14,                      !- February Surface Ground Temperature {C}
    14,                      !- March Surface Ground Temperature {C}
    14,                      !- April Surface Ground Temperature {C}
    14,                      !- May Surface Ground Temperature {C}
    14,                      !- June Surface Ground Temperature {C}
    14,                      !- July Surface Ground Temperature {C}
    14,                      !- August Surface Ground Temperature {C}
    14,                      !- September Surface Ground Temperature {C}
    14,                      !- October Surface Ground Temperature {C}
    14,                      !- November Surface Ground Temperature {C}
    14;                      !- December Surface Ground Temperature {C}


!-   ===========  ALL OBJECTS IN CLASS: SITE:GROUNDTEMPERATURE:DEEP ===========

Site:GroundTemperature:Deep,
    14,                      !- January Deep Ground Temperature {C}
    14,                      !- February Deep Ground Temperature {C}
    14,                      !- March Deep Ground Temperature {C}
    14,                      !- April Deep Ground Temperature {C}
    14,                      !- May Deep Ground Temperature {C}
    14,                      !- June Deep Ground Temperature {C}
    14,                      !- July Deep Ground Temperature {C}
    14,                      !- August Deep Ground Temperature {C}
    14,                      !- September Deep Ground Temperature {C}
    14,                      !- October Deep Ground Temperature {C}
    14,                      !- November Deep Ground Temperature {C}
    14;                      !- December Deep Ground Temperature {C}


!-   ===========  ALL OBJECTS IN CLASS: SITE:GROUNDREFLECTANCE ===========

Site:GroundReflectance,
    0.2,                     !- January Ground Reflectance {dimensionless}
    0.2,                     !- February Ground Reflectance {dimensionless}
    0.2,                     !- March Ground Reflectance {dimensionless}
    0.2,                     !- April Ground Reflectance {dimensionless}
    0.2,                     !- May Ground Reflectance {dimensionless}
    0.2,                     !- June Ground Reflectance {dimensionless}
    0.2,                     !- July Ground Reflectance {dimensionless}
    0.2,                     !- August Ground Reflectance {dimensionless}
    0.2,                     !- September Ground Reflectance {dimensionless}
    0.2,                     !- October Ground Reflectance {dimensionless}
    0.2,                     !- November Ground Reflectance {dimensionless}
    0.2;                     !- December Ground Reflectance {dimensionless}


!-   ===========  ALL OBJECTS IN CLASS: SITE:GROUNDREFLECTANCE:SNOWMODIFIER ===========

Site:GroundReflectance:SnowModifier,
    2.0,                     !- Ground Reflected Solar Modifier
    2.0;                     !- Daylighting Ground Reflected Solar Modifier


!-   ===========  ALL OBJECTS IN CLASS: SCHEDULETYPELIMITS ===========

! Not limited
ScheduleTypeLimits,
    Any Number;              !- Name

ScheduleTypeLimits,
    Fraction,                !- Name
    0.0,                     !- Lower Limit Value
    1.0,                     !- Upper Limit Value
    CONTINUOUS;              !- Numeric Type

ScheduleTypeLimits,
    Temperature,             !- Name
    -60,                     !- Lower Limit Value
    200,                     !- Upper Limit Value
    CONTINUOUS;              !- Numeric Type

ScheduleTypeLimits,
    Control Type,            !- Name
    0,                       !- Lower Limit Value
    4,                       !- Upper Limit Value
    DISCRETE;                !- Numeric Type

ScheduleTypeLimits,
    On/Off,                  !- Name
    0,                       !- Lower Limit Value
    1,                       !- Upper Limit Value
    DISCRETE;                !- Numeric Type


!-   ===========  ALL OBJECTS IN CLASS: SCHEDULE:COMPACT ===========

! Name
! Type
! Type
! All days in year
! All hours in day
Schedule:Compact,
    On,                      !- Name
    Any Number,              !- Schedule Type Limits Name
    Through: 12/31,          !- Field 1
    For: AllDays,            !- Field 2
    Until: 24:00,            !- Field 3
    1;                       !- Field 4

! Name
! Type
! Type
! All days in year
! All hours in day
Schedule:Compact,
    Off,                     !- Name
    Any Number,              !- Schedule Type Limits Name
    Through: 12/31,          !- Field 1
    For: AllDays,            !- Field 2
    Until: 24:00,            !- Field 3
    0;                       !- Field 4

! Name
! Type
! Type
! All days in year
! All hours in day
Schedule:Compact,
    Work efficiency,         !- Name
    Any Number,              !- Schedule Type Limits Name
    Through: 12/31,          !- Field 1
    For: AllDays,            !- Field 2
    Until: 24:00,            !- Field 3
    0;                       !- Field 4

Schedule:Compact,
    Zone Comfort Control Type Sched,  !- Name
    Control Type,            !- Schedule Type Limits Name
    Through: 12/31,          !- Field 1
    For: AllDays,            !- Field 2
    Until: 24:00,            !- Field 3
    4;                       !- Field 4

Schedule:Compact,
    AirVelocitySchedule,     !- Name
    Any Number,              !- Schedule Type Limits Name
    Through: 12/31,          !- Field 1
    For: AllDays,            !- Field 2
    Until: 24:00,            !- Field 3
    .137;                    !- Field 4

Schedule:Compact,
    On 24/7,                 !- Name
    Any Number,              !- Schedule Type Limits Name
    Through: 12/31,          !- Field 1
    For: AllDays,            !- Field 2
    Until: 24:00,            !- Field 3
    1 ;                      !- Field 4

Schedule:Compact,
    Infiltration_Mar_More,                 !- Name
    Any Number,              !- Schedule Type Limits Name
    Through: 28 Feb,          !- Field 1
    For: AllDays,            !- Field 2
    Until: 24:00,            !- Field 3
    1 ,                      !- Field 4
    Through: 31 Mar,          !- Field 1
    For: AllDays,            !- Field 2
    Until: 24:00,            !- Field 3
    1.2 ,                      !- Field 4
    Through: 31 Dec,          !- Field 1
    For: AllDays,            !- Field 2
    Until: 24:00,            !- Field 3
    1.2;                      !- Field 4

Schedule:Compact,
    Off 24/7,                !- Name
    Any Number,              !- Schedule Type Limits Name
    Through: 12/31,          !- Field 1
    For: AllDays,            !- Field 2
    Until: 24:00,            !- Field 3
    0  ;                     !- Field 4

Schedule:Compact,
    Chilled water flow set point temperature: Always 6 C,  !- Name
    Any Number,              !- Schedule Type Limits Name
    Through: 12/31,          !- Field 1
    For: AllDays,            !- Field 2
    Until: 24:00,            !- Field 3
    6 ;                      !- Field 4

Schedule:Compact,
    Hot Water flow set point temperature: Always 80.0 C,  !- Name
    Any Number,              !- Schedule Type Limits Name
    Through: 12/31,          !- Field 1
    For: AllDays,            !- Field 2
    Until: 24:00,            !- Field 3
    80 ;                     !- Field 4

Schedule:Compact,
    Air loop cooling set point temperature: Always 14.0 C,  !- Name
    Any Number,              !- Schedule Type Limits Name
    Through: 12/31,          !- Field 1
    For: AllDays,            !- Field 2
    Until: 24:00,            !- Field 3
    14 ;                     !- Field 4

Schedule:Compact,
    Heating set point schedule,  !- Name
    Any Number,              !- Schedule Type Limits Name
    Through: 12/31,          !- Field 1
    For: AllDays,            !- Field 2
    Until: 24:00,            !- Field 3
    20 ;                     !- Field 4

Schedule:Compact,
    Cooling set point schedule,  !- Name
    Any Number,              !- Schedule Type Limits Name
    Through: 12/31,          !- Field 1
    For: AllDays,            !- Field 2
    Until: 24:00,            !- Field 3
    24 ;                     !- Field 4

Schedule:Compact,
    Control type schedule: Always 4,  !- Name
    Any Number,              !- Schedule Type Limits Name
    Through: 12/31,          !- Field 1
    For: AllDays,            !- Field 2
    Until: 24:00,            !- Field 3
    4 ;                      !- Field 4

Schedule:Compact,
    Heating high water temperature schedule: Always 50.00,  !- Name
    Any Number,              !- Schedule Type Limits Name
    Through: 12/31,          !- Field 1
    For: AllDays,            !- Field 2
    Until: 24:00,            !- Field 3
    50 ;                     !- Field 4

Schedule:Compact,
    Heating low water temperature schedule: Always 30.00,  !- Name
    Any Number,              !- Schedule Type Limits Name
    Through: 12/31,          !- Field 1
    For: AllDays,            !- Field 2
    Until: 24:00,            !- Field 3
    30 ;                     !- Field 4

Schedule:Compact,
    Heating low control temperature schedule: Always 15.00,  !- Name
    Any Number,              !- Schedule Type Limits Name
    Through: 12/31,          !- Field 1
    For: AllDays,            !- Field 2
    Until: 24:00,            !- Field 3
    15 ;                     !- Field 4

Schedule:Compact,
    Heating high control temperature schedule: Always 21.00,  !- Name
    Any Number,              !- Schedule Type Limits Name
    Through: 12/31,          !- Field 1
    For: AllDays,            !- Field 2
    Until: 24:00,            !- Field 3
    21 ;                     !- Field 4

Schedule:Compact,
    Cooling high water temperature schedule: Always 15.00,  !- Name
    Any Number,              !- Schedule Type Limits Name
    Through: 12/31,          !- Field 1
    For: AllDays,            !- Field 2
    Until: 24:00,            !- Field 3
    15 ;                     !- Field 4

Schedule:Compact,
    Cooling low water temperature schedule: Always 10.00,  !- Name
    Any Number,              !- Schedule Type Limits Name
    Through: 12/31,          !- Field 1
    For: AllDays,            !- Field 2
    Until: 24:00,            !- Field 3
    10 ;                     !- Field 4

Schedule:Compact,
    Cooling low control temperature schedule: Always 22.00,  !- Name
    Any Number,              !- Schedule Type Limits Name
    Through: 12/31,          !- Field 1
    For: AllDays,            !- Field 2
    Until: 24:00,            !- Field 3
    22 ;                     !- Field 4

Schedule:Compact,
    Cooling high control temperature schedule: Always 26.00,  !- Name
    Any Number,              !- Schedule Type Limits Name
    Through: 12/31,          !- Field 1
    For: AllDays,            !- Field 2
    Until: 24:00,            !- Field 3
    26 ;                     !- Field 4

Schedule:Compact,
    Min outdoor air schedule: Always 1.00,  !- Name
    Any Number,              !- Schedule Type Limits Name
    Through: 12/31,          !- Field 1
    For: AllDays,            !- Field 2
    Until: 24:00,            !- Field 3
    1 ;                      !- Field 4

Schedule:Compact,
    Office_Circulation_Occ,  !- Name
    Fraction,                !- Schedule Type Limits Name
    Through: 31 Dec,         !- Field 1
    For: Weekdays SummerDesignDay,  !- Field 2
    Until: 07:00,            !- Field 3
    0,                       !- Field 4
    Until: 08:00,            !- Field 5
    0.25,                    !- Field 6
    Until: 09:00,            !- Field 7
    0.5,                     !- Field 8
    Until: 12:00,            !- Field 9
    1,                       !- Field 10
    Until: 14:00,            !- Field 11
    0.75,                    !- Field 12
    Until: 17:00,            !- Field 13
    1,                       !- Field 14
    Until: 18:00,            !- Field 15
    0.5,                     !- Field 16
    Until: 19:00,            !- Field 17
    0.25,                    !- Field 18
    Until: 24:00,            !- Field 19
    0,                       !- Field 20
    For: Weekends,           !- Field 21
    Until: 24:00,            !- Field 22
    0,                       !- Field 23
    For: Holidays,           !- Field 24
    Until: 24:00,            !- Field 25
    0,                       !- Field 26
    For: WinterDesignDay AllOtherDays,  !- Field 27
    Until: 24:00,            !- Field 28
    0;                       !- Field 29

Schedule:Compact,
    Office_OpenOff_Occ,      !- Name
    Fraction,                !- Schedule Type Limits Name
    Through: 31 Dec,         !- Field 1
    For: Weekdays SummerDesignDay,  !- Field 2
    Until: 07:00,            !- Field 3
    0,                       !- Field 4
    Until: 08:00,            !- Field 5
    0.25,                    !- Field 6
    Until: 09:00,            !- Field 7
    0.5,                     !- Field 8
    Until: 12:00,            !- Field 9
    1,                       !- Field 10
    Until: 14:00,            !- Field 11
    0.75,                    !- Field 12
    Until: 17:00,            !- Field 13
    1,                       !- Field 14
    Until: 18:00,            !- Field 15
    0.5,                     !- Field 16
    Until: 19:00,            !- Field 17
    0.25,                    !- Field 18
    Until: 24:00,            !- Field 19
    0,                       !- Field 20
    For: Weekends,           !- Field 21
    Until: 24:00,            !- Field 22
    0,                       !- Field 23
    For: Holidays,           !- Field 24
    Until: 24:00,            !- Field 25
    0,                       !- Field 26
    For: WinterDesignDay AllOtherDays,  !- Field 27
    Until: 24:00,            !- Field 28
    0;                       !- Field 29

Schedule:Compact,
    Office_EatDrink_Occ,     !- Name
    Fraction,                !- Schedule Type Limits Name
    Through: 31 Dec,         !- Field 1
    For: Weekdays SummerDesignDay,  !- Field 2
    Until: 11:00,            !- Field 3
    0,                       !- Field 4
    Until: 12:00,            !- Field 5
    0.25,                    !- Field 6
    Until: 14:00,            !- Field 7
    1,                       !- Field 8
    Until: 15:00,            !- Field 9
    0.75,                    !- Field 10
    Until: 24:00,            !- Field 11
    0,                       !- Field 12
    For: Weekends,           !- Field 13
    Until: 24:00,            !- Field 14
    0,                       !- Field 15
    For: Holidays,           !- Field 16
    Until: 24:00,            !- Field 17
    0,                       !- Field 18
    For: WinterDesignDay AllOtherDays,  !- Field 19
    Until: 24:00,            !- Field 20
    0;                       !- Field 21

Schedule:Compact,
    iw_on,                   !- Name
    Fraction,                !- Schedule Type Limits Name
    Through: 31 Dec,         !- Field 1
    For: Weekdays SummerDesignDay,  !- Field 2
    Until: 24:00,            !- Field 3
    1,                       !- Field 4
    For: Weekends,           !- Field 5
    Until: 24:00,            !- Field 6
    1,                       !- Field 7
    For: Holidays,           !- Field 8
    Until: 24:00,            !- Field 9
    1,                       !- Field 10
    For: WinterDesignDay AllOtherDays,  !- Field 11
    Until: 24:00,            !- Field 12
    0;                       !- Field 13

Schedule:Compact,
    iw_circulation_occ,      !- Name
    Fraction,                !- Schedule Type Limits Name
    Through: 31 Dec,         !- Field 1
    For: Weekdays SummerDesignDay,  !- Field 2
    Until: 07:00,            !- Field 3
    0,                       !- Field 4
    Until: 08:00,            !- Field 5
    0.25,                    !- Field 6
    Until: 09:00,            !- Field 7
    0.5,                     !- Field 8
    Until: 12:00,            !- Field 9
    1,                       !- Field 10
    Until: 14:00,            !- Field 11
    0.75,                    !- Field 12
    Until: 17:00,            !- Field 13
    1,                       !- Field 14
    Until: 18:00,            !- Field 15
    0.5,                     !- Field 16
    Until: 19:00,            !- Field 17
    0.25,                    !- Field 18
    Until: 24:00,            !- Field 19
    0,                       !- Field 20
    For: Weekends,           !- Field 21
    Until: 24:00,            !- Field 22
    0,                       !- Field 23
    For: Holidays,           !- Field 24
    Until: 24:00,            !- Field 25
    0,                       !- Field 26
    For: WinterDesignDay AllOtherDays,  !- Field 27
    Until: 24:00,            !- Field 28
    0;                       !- Field 29

Schedule:Compact,
    iw_classroom_occ,        !- Name
    Fraction,                !- Schedule Type Limits Name
    Through: 15 Jan,         !- Field 1
    For: AllDays,            !- Field 2
    Until: 24:00,            !- Field 3
    0,                       !- Field 4
    Through: 12 Mar,         !- Field 5
    For: Weekdays SummerDesignDay,  !- Field 6
    Until: 07:00,            !- Field 7
    0,                       !- Field 8
    Until: 08:00,            !- Field 9
    0.1,                     !- Field 10
    Until: 09:00,            !- Field 11
    0.25,                    !- Field 12
    Until: 10:00,            !- Field 13
    0.75,                    !- Field 14
    Until: 12:00,            !- Field 15
    1,                       !- Field 16
    Until: 14:00,            !- Field 17
    0.25,                    !- Field 18
    Until: 16:00,            !- Field 19
    1,                       !- Field 20
    Until: 18:00,            !- Field 21
    0.5,                     !- Field 22
    Until: 24:00,            !- Field 23
    0,                       !- Field 24
    For: Weekends,           !- Field 25
    Until: 24:00,            !- Field 26
    0,                       !- Field 27
    For: Holidays,           !- Field 28
    Until: 24:00,            !- Field 29
    0,                       !- Field 30
    For: WinterDesignDay AllOtherDays,  !- Field 31
    Until: 24:00,            !- Field 32
    0,                       !- Field 33
    Through: 16 Mar,         !- Field 34
    For: AllDays,            !- Field 35
    Until: 24:00,            !- Field 36
    0,                       !- Field 37
    Through: 4 May,          !- Field 38
    For: Weekdays SummerDesignDay,  !- Field 39
    Until: 07:00,            !- Field 40
    0,                       !- Field 41
    Until: 08:00,            !- Field 42
    0.1,                     !- Field 43
    Until: 09:00,            !- Field 44
    0.25,                    !- Field 45
    Until: 10:00,            !- Field 46
    0.75,                    !- Field 47
    Until: 12:00,            !- Field 48
    1,                       !- Field 49